* ================================================================
* 1N4148 - Fast Switching Diode
* 100V, 300mA, 4ns reverse recovery
*
* PIN CONNECTIONS: Anode=A  Cathode=K
* ================================================================
.MODEL 1N4148 D (
+ IS=2.52E-9
+ N=1.752
+ RS=0.568
+ BV=100
+ IBV=1E-5
+ TT=4E-9
+ CJO=4E-12
+ VJ=0.9
+ M=0.279
+ EG=1.11
+ XTI=3)
