* 2N3904 NPN Silicon Transistor
* Standard flat .MODEL - ngspice compatible
* Derived from standard SPICE parameters for 2N3904
* Onsemi / generic
*
.MODEL 2N3904 NPN (
+ IS=6.734E-15
+ BF=300
+ NF=1.0
+ VAF=74.03
+ IKF=66.78E-3
+ ISE=6.734E-15
+ NE=1.259
+ BR=0.7372
+ NR=1.0
+ VAR=28.08
+ IKR=0.08712
+ ISC=5E-13
+ NC=1.967
+ RB=10
+ RC=1
+ RE=0.1
+ CJE=8E-12
+ VJE=0.75
+ MJE=0.3333
+ CJC=4E-12
+ VJC=0.75
+ MJC=0.3333
+ TF=333.2E-12
+ XTF=2.0
+ VTF=4.0
+ ITF=0.04
+ TR=179.3E-9
+ EG=1.11
+ XTI=3)
